tests/golden/phase8/export_elempowers.txt
Element, Nterminals, Nconductors, P_1, Q_1, ...
"Vsource.source", 2, 3,   -1024.12,   -612.729,   -1242.15,   -419.074,   -1300.78,   -704.636,          0,          0,          0,          0,          0,          0
"Transformer.sub", 2, 4,    1024.12,    612.729,    1242.15,    419.074,    1300.78,    704.636,          0,          0,   -1251.95,   -684.936,   -972.854,   -379.165,   -1342.21,   -672.076,          0,          0
"Transformer.reg1", 2, 2,    1251.95,    684.936,          0,          0,   -1251.83,   -684.813,          0,          0
"Transformer.reg2", 2, 2,    972.854,    379.165,          0,          0,   -972.789,   -379.098,          0,          0
"Transformer.reg3", 2, 2,    1342.21,    672.076,          0,          0,   -1342.08,   -671.939,          0,          0
"Transformer.xfm1", 2, 4,    162.553,    114.643,     121.46,    92.6552,    121.539,    92.7977,          0,          0,       -160,       -110,       -120,   -89.9999,       -120,   -90.0003,          0,          0
"Capacitor.cap1", 2, 3, 3.63798E-15,   -190.622,          0,   -217.416,          0,   -185.456,          0,          0,          0,          0,          0,          0
"Capacitor.cap2", 2, 1,          0,   -92.4587,          0,          0
"Line.650632", 2, 3,    1251.83,    684.813,    972.789,    379.098,    1342.08,    671.939,   -1230.13,   -604.357,   -975.885,   -346.434,   -1299.95,   -589.072
"Line.632670", 2, 3,    1067.22,    489.185,    524.045,    125.526,    1100.46,    361.557,   -1064.06,   -467.065,   -526.001,   -123.925,   -1088.68,    -343.79
"Line.670671", 2, 3,    1047.06,    457.065,    460.001,    85.9249,    971.682,     275.79,   -1039.32,   -412.851,   -464.367,   -83.2442,   -952.329,   -250.363
"Line.671680", 2, 3, -0.000024975, -0.00135063, 0.0000138639, -0.00149283, 0.0000111112, -0.0013257, 4.67689E-12, 3.87267E-12, -5.9005E-12, -1.77853E-11,          0,          0
"Line.632633", 2, 3,    162.911,    115.173,    121.613,    92.9266,    121.852,    93.0525,   -162.553,   -114.643,    -121.46,   -92.6552,   -121.539,   -92.7977
"Line.632645", 2, 2,    77.6402,    134.462,    330.227,    127.982,   -77.4313,   -134.242,   -327.668,   -125.802
"Line.645646", 2, 2,    77.4313,    134.242,    157.668,   0.802125,   -77.1681,   -134.031,   -157.404,  -0.593416
"Line.692675", 2, 3,    488.239,    1.41975,    68.3327,   -156.935,    290.591,    26.4408,       -485,   0.621632,   -67.9999,    157.416,   -290.001,   -26.5444
"Line.671684", 2, 2,    122.951,    82.3725,    164.219,   -14.8869,   -122.744,   -82.1618,   -163.847,    15.1469
"Line.684611", 2, 1,    163.847,   -15.1469,   -163.465,    15.5342
"Line.684652", 2, 1,    122.744,    82.1618,   -121.944,    -81.931
"Line.671692", 2, 3,    531.017,     123.14,    68.3327,   -156.935,    414.492,    52.7705,   -531.017,    -123.14,   -68.3327,    156.935,   -414.492,   -52.7705
"Load.671", 1, 3,    385.349,    207.339,    396.034,    240.181,    373.618,    212.481
"Load.634a", 1, 2,        160,        110,          0,          0
"Load.634b", 1, 2,        120,    89.9999,          0,          0
"Load.634c", 1, 2,        120,    90.0002,          0,          0
"Load.645", 1, 2,        170,        125,          0,          0
"Load.646", 1, 2,    157.404,   0.593486,    77.1681,    134.031
"Load.692", 1, 2,    123.901,    26.3297,    42.7778,     121.72
"Load.675a", 1, 2,        485,        190,          0,          0
"Load.675b", 1, 2,         68,    59.9999,          0,          0
"Load.675c", 1, 2,        290,    212.001,          0,          0
"Load.611", 1, 2,    163.464,    76.9245,          0,          0
"Load.652", 1, 2,    121.944,    81.9311,          0,          0
"Load.670a", 1, 2,         17,         10,          0,          0
"Load.670b", 1, 2,         66,         38,          0,          0
"Load.670c", 1, 2,        117,    68.0002,          0,          0
